data_3.1.1.128.001\(2)
_audit_creation_date              2019-05-09
_audit_creation_method            'Materials Studio'
_symmetry_space_group_name_H-M    'P4/MNC'
_symmetry_Int_Tables_number       128
_symmetry_cell_setting            tetragonal
loop_
_symmetry_equiv_pos_as_xyz
  x,y,z
  -x,-y,z
  -y,x,z
  y,-x,z
  -x+1/2,y+1/2,-z+1/2
  x+1/2,-y+1/2,-z+1/2
  y+1/2,x+1/2,-z+1/2
  -y+1/2,-x+1/2,-z+1/2
  -x,-y,-z
  x,y,-z
  y,-x,-z
  -y,x,-z
  x+1/2,-y+1/2,z+1/2
  -x+1/2,y+1/2,z+1/2
  -y+1/2,-x+1/2,z+1/2
  y+1/2,x+1/2,z+1/2
_cell_length_a                    14.3220
_cell_length_b                    14.3220
_cell_length_c                    10.4240
_cell_angle_alpha                 90.0000
_cell_angle_beta                  90.0000
_cell_angle_gamma                 90.0000
loop_
_atom_site_label
_atom_site_type_symbol
_atom_site_fract_x
_atom_site_fract_y
_atom_site_fract_z
_atom_site_U_iso_or_equiv
_atom_site_adp_type
_atom_site_occupancy
O2     O     0.32090   0.86030   0.88260   0.04900  Uiso   1.00
O3     O     0.50930   0.87220   0.78650   0.04900  Uiso   1.00
O5     O     0.66830   0.86190   0.86140   0.06400  Uiso   1.00
N1     N     0.55950   0.67180   0.05470   0.02700  Uiso   0.09
N3     N     0.42210   0.51460   0.29560   0.02700  Uiso   0.09
N4     N     0.49380   0.51050   0.79020   0.02700  Uiso   0.09
C2     C     0.61870   0.33760   0.09180   0.02700  Uiso   0.09
C3     C     0.49660   0.47480   0.38120   0.02700  Uiso   0.09
C4     C     0.40920   0.55050   0.72580   0.02700  Uiso   0.09
C5     C     0.44510   0.32000   0.04770   0.02700  Uiso   0.09
C6     C     0.40660   0.34800   0.18150   0.02700  Uiso   0.09
C7     C     0.36850   0.44730   0.21010   0.02700  Uiso   0.09
C8     C     0.45080   0.60500   0.23320   0.02700  Uiso   0.09
C9     C     0.51450   0.59060   0.11590   0.02700  Uiso   0.09
C10    C     0.64600   0.65010   0.97820   0.02700  Uiso   0.09
C11    C     0.64800   0.56920   0.88020   0.02700  Uiso   0.09
C12    C     0.58100   0.56620   0.76430   0.02700  Uiso   0.09
C13    C     0.50250   0.40610   0.76720   0.02700  Uiso   0.09
C14    C     0.55930   0.34810   0.86650   0.02700  Uiso   0.09
AL1    Al    0.26890   0.10910   0.00000   0.01785  Uiso   0.85
P2     P     0.26660   0.88630   0.00000   0.02400  Uiso   1.00
O1     O     0.24140   0.98860   0.00000   0.03800  Uiso   1.00
O4     O     0.17500   0.83390   0.00000   0.04300  Uiso   1.00
N2     N     0.53680   0.36210   0.00000   0.02700  Uiso   0.09
MG1    Mg    0.26890   0.10910   0.00000   0.00315  Uiso   0.15
AL2    Al    0.39070   0.89070   0.75000   0.02635  Uiso   0.85
MG2    Mg    0.39070   0.89070   0.75000   0.00465  Uiso   0.15
P1     P     0.61010   0.88990   0.75000   0.03100  Uiso   1.00
C1     C     0.49370   0.73710   1.00000   0.02700  Uiso   0.09
