data_3.1.2.20.002
_audit_creation_date              2019-08-07
_audit_creation_method            'Materials Studio'
_symmetry_space_group_name_H-M    'C2221'
_symmetry_Int_Tables_number       20
_symmetry_cell_setting            orthorhombic
loop_
_symmetry_equiv_pos_as_xyz
  x,y,z
  -x,-y,z+1/2
  -x,y,-z+1/2
  x,-y,-z
  x+1/2,y+1/2,z
  -x+1/2,-y+1/2,z+1/2
  -x+1/2,y+1/2,-z+1/2
  x+1/2,-y+1/2,-z
_cell_length_a                    13.8257
_cell_length_b                    14.4788
_cell_length_c                    10.1658
_cell_angle_alpha                 90.0000
_cell_angle_beta                  90.0000
_cell_angle_gamma                 90.0000
loop_
_atom_site_label
_atom_site_type_symbol
_atom_site_fract_x
_atom_site_fract_y
_atom_site_fract_z
_atom_site_U_iso_or_equiv
_atom_site_adp_type

Al(1)  Al    0.23640   0.35280   0.03270   0.02900  Uiso    
P(2)   P     0.33270   0.26300   0.28420   0.03000  Uiso    
O(1)   O     0.39120   0.18510   0.22490   0.05800  Uiso    
O(2)   O     0.34310   0.41550  -0.02040   0.07900  Uiso    
O(3)   O     0.13080   0.42980   0.06980   0.05700  Uiso    
O(4)   O     0.39900   0.34480   0.30640   0.06700  Uiso    
O(5)   O     0.25380   0.28680   0.19040   0.06100  Uiso    
O(6)   O     0.49680   0.04650   0.39540   0.07800  Uiso    
O(7)   O     0.21210   0.26010  -0.08940   0.08200  Uiso    
O(8)   O     0.46880   0.48450   0.11550   0.15400  Uiso    
C(1)   C     0.24540   0.03080   0.10840   0.15300  Uiso    
C(2)   C    -0.03140   0.27460   0.12910   0.23300  Uiso    
Al(2)  Al    0.50000   0.11570   0.25000   0.03400  Uiso    
Al(3)  Al    0.50000   0.41030   0.25000   0.06700  Uiso    
P(1)   P     0.40500   0.50000   0.00000   0.06600  Uiso    
P(3)   P     0.06840   0.50000   0.00000   0.03100  Uiso    
N(1)   N     0.15560   0.00000   0.00000   0.47600  Uiso    
N(2)   N     0.00000   0.20540   0.25000   0.56000  Uiso    
Co(1)  Co    0.2364(1) 0.3528(1) 0.0327(2) 0.029(1) Uiso
Co(2)  Co    0.5000    0.1157(2) 0.2500    0.034(1) Uiso
Co(3)  Co    0.5000    0.4103(2) 0.2500    0.067(2) Uiso

loop_
_geom_bond_atom_site_label_1
_geom_bond_atom_site_label_2
_geom_bond_distance
_geom_bond_site_symmetry_2
_ccdc_geom_bond_type
Al(1)  O(2)    1.814   .     S
Al(1)  O(3)    1.875   .     S
Al(1)  O(5)    1.882   .     S
Al(1)  O(7)    1.859   .     S
P(2)   O(1)    1.513   .     S
P(2)   O(4)    1.515   .     S
P(2)   O(5)    1.489   .     S
P(2)   O(7)    1.465   6     S
O(1)   Al(2)   1.827   .     S
O(2)   P(1)    1.507   .     A
O(3)   P(3)    1.510   .     A
O(4)   Al(3)   1.783   .     S
O(6)   Al(2)   1.786   .     S
O(6)   P(3)    1.548   6     S
O(7)   P(2)    1.465   6_554 S
O(8)   Al(3)   1.792   .     S
O(8)   P(1)    1.486   .     A
C(1)   N(1)    1.719   .     A
C(2)   N(2)    1.644   .     A
Al(2)  O(1)    1.827   3_655 S
Al(2)  O(6)    1.786   3_655 S
Al(3)  O(4)    1.783   3_655 S
Al(3)  O(8)    1.792   3_655 S
P(1)   O(2)    1.507   4_565 A
P(1)   O(8)    1.486   4_565 A
P(3)   O(3)    1.510   4_565 A
P(3)   O(6)    1.548   6_554 S
P(3)   O(6)    1.548   7     S
N(1)   C(1)    1.719   4     A
N(2)   C(2)    1.644   3     A
