data_3.4.5.114.001\(2)
_audit_creation_date              2019-03-28
_audit_creation_method            'Materials Studio'
_symmetry_space_group_name_H-M    'P-421C'
_symmetry_Int_Tables_number       114
_symmetry_cell_setting            tetragonal
loop_
_symmetry_equiv_pos_as_xyz
  x,y,z
  -x,-y,z
  y,-x,-z
  -y,x,-z
  -x+1/2,y+1/2,-z+1/2
  x+1/2,-y+1/2,-z+1/2
  -y+1/2,-x+1/2,z+1/2
  y+1/2,x+1/2,z+1/2
_cell_length_a                    17.7754
_cell_length_b                    17.7754
_cell_length_c                    8.8374
_cell_angle_alpha                 90.0000
_cell_angle_beta                  90.0000
_cell_angle_gamma                 90.0000
loop_
_atom_site_label
_atom_site_type_symbol
_atom_site_fract_x
_atom_site_fract_y
_atom_site_fract_z
_atom_site_U_iso_or_equiv
_atom_site_adp_type
_atom_site_occupancy
P4     P     0.64474   0.26496   0.26420   0.02317  Uani   0.63
P4A    P     0.67496   0.32212   0.26990   0.01503  Uani   0.37
O42A   O     0.70710   0.39760   0.27530   0.03833  Uani   0.37
Al2    Al    0.50853   0.37427   0.25181   0.01367  Uani   1.00
P2     P     0.40270   0.23269   0.23651   0.02353  Uani   1.00
Al1    Al    0.77420   0.27657   0.01470   0.02940  Uani   1.00
O22    O     0.43694   0.31089   0.22030   0.02680  Uani   1.00
O21    O     0.59100   0.32740   0.28840   0.03350  Uani   1.00
O1     O     0.85320   0.26800   0.12520   0.06287  Uani   1.00
O3     O     0.69410   0.28280   0.12670   0.04290  Uani   1.00
O23    O     0.48390   0.43180   0.40280   0.02627  Uani   1.00
O41    O     0.69830   0.26380   0.40170   0.04933  Uani   1.00
O51    O     0.46250   0.17400   0.25660   0.06060  Uani   1.00
H51    H     0.49010   0.17370   0.18230   0.09100  Uiso   1.00
O42    O     0.59990   0.19490   0.23470   0.06300  Uani   0.63
O11    O     0.51940   0.43240   0.09640   0.02907  Uani   1.00
O2     O     0.78240   0.35590  -0.09710   0.04043  Uani   1.00
N1     N     0.76790   0.52930   0.25300   0.13267  Uani   1.00
C1     C     0.82290   0.52770   0.14200   0.13267  Uani   1.00
H1A    H     0.82640   0.57810   0.10000   0.15900  Uiso   1.00
H1B    H     0.80450   0.49550   0.06110   0.15900  Uiso   1.00
C2     C     0.90020   0.50320   0.17700   0.13267  Uani   1.00
H2A    H     0.93790   0.53900   0.14380   0.15900  Uiso   1.00
H2B    H     0.91150   0.45360   0.13730   0.15900  Uiso   1.00
C3     C     0.70640   0.57590   0.23800   0.07833  Uani   0.63
H3A    H     0.67310   0.55590   0.16230   0.11800  Uiso   0.63
H3B    H     0.72280   0.62510   0.20780   0.11800  Uiso   0.63
H3C    H     0.68040   0.57910   0.33280   0.11800  Uiso   0.63
C3A    C     0.71140   0.48730   0.29000   0.09200  Uani   0.37
H3A1   H     0.67610   0.48560   0.20810   0.13800  Uiso   0.37
H3A2   H     0.68740   0.50770   0.37840   0.13800  Uiso   0.37
H3A3   H     0.72890   0.43730   0.31160   0.13800  Uiso   0.37
C4     C     0.88990   0.50320   0.34300   0.13267  Uani   1.00
H4A    H     0.93140   0.52890   0.39220   0.15900  Uiso   1.00
H4B    H     0.88740   0.45210   0.38130   0.15900  Uiso   1.00
C5     C     0.81670   0.54420   0.37300   0.13267  Uani   1.00
H5A    H     0.79470   0.52690   0.46720   0.15900  Uiso   1.00
H5B    H     0.82570   0.59780   0.38070   0.15900  Uiso   1.00
P1     P     0.50000   0.50000   0.00000   0.01320  Uani   1.00
P3     P     0.50000   0.50000   0.50000   0.01373  Uani   1.00
loop_
_atom_site_aniso_label
_atom_site_aniso_U_11
_atom_site_aniso_U_22
_atom_site_aniso_U_33
_atom_site_aniso_U_12
_atom_site_aniso_U_13
_atom_site_aniso_U_23
P4        0.01910   0.02240   0.02800   0.00660  -0.00350  -0.00040
P4A       0.01230   0.01290   0.01990  -0.00030   0.00190   0.00030
O42A      0.04000   0.01600   0.05900  -0.01500   0.00500  -0.00900
Al2       0.01320   0.01170   0.01610   0.00030  -0.00020   0.00080
P2        0.02200   0.02080   0.02780  -0.00830  -0.00330   0.00210
Al1       0.03500   0.03240   0.02080   0.01780  -0.00210   0.00120
O22       0.02110   0.01730   0.04200  -0.00360  -0.00310  -0.00470
O21       0.02250   0.03300   0.04500   0.00750  -0.00170   0.00920
O1        0.04500   0.11900   0.02460   0.04400  -0.00730   0.01100
O3        0.04100   0.05900   0.02870   0.01200   0.00670   0.00240
O23       0.03090   0.02490   0.02300   0.00030  -0.00070  -0.00660
O41       0.03200   0.08300   0.03300   0.02400  -0.00580   0.00600
O51       0.05200   0.02280   0.10700   0.00110  -0.02200   0.01300
O42       0.03500   0.02500   0.12900   0.00300  -0.00600  -0.01600
O11       0.04000   0.02490   0.02230   0.00540   0.00000   0.01010
O2        0.04300   0.04700   0.03130   0.00970  -0.00660   0.01570
N1        0.09700   0.12500   0.17600   0.00400   0.02400   0.00100
C1        0.09700   0.12500   0.17600   0.00400   0.02400   0.00100
C2        0.09700   0.12500   0.17600   0.00400   0.02400   0.00100
C3        0.03500   0.06300   0.13700   0.00600   0.00500   0.02400
C3A       0.04700   0.10000   0.12900  -0.01500   0.02900  -0.00300
C4        0.09700   0.12500   0.17600   0.00400   0.02400   0.00100
C5        0.09700   0.12500   0.17600   0.00400   0.02400   0.00100
P1        0.01470   0.01470   0.01020   0.00000   0.00000   0.00000
P3        0.01530   0.01530   0.01060   0.00000   0.00000   0.00000
loop_
_geom_bond_atom_site_label_1
_geom_bond_atom_site_label_2
_geom_bond_distance
_geom_bond_site_symmetry_2
_ccdc_geom_bond_type
P4     O21     1.480   .     S
P4     O42     1.501   .     S
P4     O3      1.532   .     S
P4     O41     1.544   .     S
P4A    O42A    1.459   .     S
P4A    O3      1.485   .     S
P4A    O21     1.504   .     S
P4A    O41     1.614   .     S
Al2    O21     1.717   .     S
Al2    O22     1.722   .     S
Al2    O11     1.730   .     S
Al2    O23     1.737   .     S
P2     O51     1.500   .     S
P2     O22     1.524   .     S
P2     O1      1.506   6_455 S
P2     O2      1.511   3_565 S
Al1    O1      1.717   .     S
Al1    O2      1.728   .     S
Al1    O3      1.738   .     S
Al1    O41     1.723   8_544 S
O1     P2      1.506   6     S
O23    P3      1.513   .     S
O41    Al1     1.723   8_545 S
O51    H51     0.820   .     S
O11    P1      1.513   .     S
O2     P2      1.511   4_655 S
N1     C3A     1.293   .     S
N1     C3      1.378   .     S
N1     C1      1.385   .     S
N1     C5      1.395   .     S
C1     C2      1.474   .     S
C1     H1A     0.972   .     S
C1     H1B     0.972   .     S
C2     C4      1.478   .     S
C2     H2A     0.970   .     S
C2     H2B     0.970   .     S
C3     H3A     0.961   .     S
C3     H3B     0.960   .     S
C3     H3C     0.958   .     S
C3A    H3A1    0.958   .     S
C3A    H3A2    0.961   .     S
C3A    H3A3    0.961   .     S
C4     C5      1.515   .     S
C4     H4A     0.971   .     S
C4     H4B     0.970   .     S
C5     H5A     0.970   .     S
C5     H5B     0.968   .     S
P1     O11     1.513   2_665 S
P1     O11     1.513   3_565 S
P1     O11     1.513   4_655 S
P3     O23     1.513   2_665 S
P3     O23     1.513   3_566 S
P3     O23     1.513   4_656 S
