data_3.1.1.49.001\(2)
_audit_creation_date              2019-05-09
_audit_creation_method            'Materials Studio'
_symmetry_space_group_name_H-M    'PCCM'
_symmetry_Int_Tables_number       49
_symmetry_cell_setting            orthorhombic
loop_
_symmetry_equiv_pos_as_xyz
  x,y,z
  -x,-y,z
  -x,y,-z+1/2
  x,-y,-z+1/2
  -x,-y,-z
  x,y,-z
  x,-y,z+1/2
  -x,y,z+1/2
_cell_length_a                    9.9920
_cell_length_b                    11.6440
_cell_length_c                    12.2310
_cell_angle_alpha                 90.0000
_cell_angle_beta                  90.0000
_cell_angle_gamma                 90.0000
loop_
_atom_site_label
_atom_site_type_symbol
_atom_site_fract_x
_atom_site_fract_y
_atom_site_fract_z
_atom_site_U_iso_or_equiv
_atom_site_adp_type
_atom_site_occupancy
O6     O     0.03084   0.27513   0.15214   0.01910  Uiso   1.00
O7     O    -0.12004   0.12204   0.22234   0.02110  Uiso   1.00
O8     O     0.23855   0.01954   0.10034   0.02110  Uiso   1.00
O9     O    -0.38804   0.11234   0.24164   0.01810  Uiso   1.00
N11    N    -0.34733   3.55116   0.29703   0.27910  Uiso   1.00
C12    C    -0.48156   0.37783   0.35464   0.48250  Uiso   1.00
C10    C    -0.32713   0.35723   0.17233   0.75570  Uiso   1.00
AL1    Al   -0.04533   0.27512   0.00000   0.01510  Uiso   1.00
P1     P     0.27422   0.08812   0.00000   0.01410  Uiso   1.00
O1     O     0.21257   0.20685   0.00000   0.02220  Uiso   1.00
O2     O    -0.07047   0.14706   0.00000   0.02620  Uiso   1.00
O3     O     0.14667   0.42165   0.00000   0.01920  Uiso   1.00
O4     O    -0.11247   0.38635   0.00000   0.02120  Uiso   1.00
O5     O     0.43137   0.10936   0.00000   0.03120  Uiso   1.00
C1     C     0.07499   0.51028   0.00000   0.01620  Uiso   1.00
AL2    Al   -0.23093   0.00000   0.25000   0.01410  Uiso   1.00
P2     P     0.00000   0.19772   0.25000   0.01210  Uiso   1.00
O10    O     0.07382   0.50000   0.25000   0.20012  Uiso   1.00
C2     C    -0.50000   0.06597   0.25000   0.01220  Uiso   1.00
