data_image0
_cell_length_a       16.8167
_cell_length_b       14.2636
_cell_length_c       12.007
_cell_angle_alpha    90
_cell_angle_beta     118.469
_cell_angle_gamma    90

_symmetry_space_group_name_H-M    "P 1"
_symmetry_int_tables_number       1

loop_
  _symmetry_equiv_pos_as_xyz
  'x, y, z'

loop_
  _atom_site_label
  _atom_site_occupancy
  _atom_site_fract_x
  _atom_site_fract_y
  _atom_site_fract_z
  _atom_site_thermal_displace_type
  _atom_site_B_iso_or_equiv
  _atom_site_type_symbol
  Co1      1.0000 0.42677  0.83466  0.66032  Biso   1.000  Co
  Co2      1.0000 0.56772  0.16364  0.33214  Biso   1.000  Co
  Co3      1.0000 0.56919  0.83565  0.84623  Biso   1.000  Co
  Co4      1.0000 0.42534  0.16554  0.14611  Biso   1.000  Co
  Co5      1.0000 0.92690  0.33451  0.65883  Biso   1.000  Co
  Co6      1.0000 0.07609  0.66597  0.35292  Biso   1.000  Co
  Co7      1.0000 0.06922  0.33573  0.84506  Biso   1.000  Co
  Co8      1.0000 0.93367  0.66429  0.16668  Biso   1.000  Co
  O1       1.0000 0.33348  0.92108  0.61774  Biso   1.000  O
  O2       1.0000 0.65995  0.07793  0.36810  Biso   1.000  O
  O3       1.0000 0.65998  0.92138  0.87281  Biso   1.000  O
  O4       1.0000 0.33339  0.07894  0.11265  Biso   1.000  O
  O5       1.0000 0.83274  0.41942  0.61938  Biso   1.000  O
  O6       1.0000 0.16780  0.57896  0.38781  Biso   1.000  O
  O7       1.0000 0.15923  0.42317  0.87416  Biso   1.000  O
  O8       1.0000 0.84081  0.57916  0.13298  Biso   1.000  O
  O9       1.0000 0.35563  0.00006  0.79413  Biso   1.000  O
  O10      1.0000 0.63837  0.98555  0.20122  Biso   1.000  O
  O11      1.0000 0.63699  0.01217  0.70302  Biso   1.000  O
  O12      1.0000 0.35651  0.00249  0.29222  Biso   1.000  O
  O13      1.0000 0.85638  0.50061  0.79470  Biso   1.000  O
  O14      1.0000 0.14371  0.50291  0.20789  Biso   1.000  O
  O15      1.0000 0.13746  0.51194  0.70320  Biso   1.000  O
  O16      1.0000 0.86213  0.48503  0.29871  Biso   1.000  O
  O17      1.0000 0.12006  0.24008  0.79436  Biso   1.000  O
  O18      1.0000 0.88504  0.76283  0.21671  Biso   1.000  O
  O19      1.0000 0.88193  0.23608  0.71451  Biso   1.000  O
  O20      1.0000 0.12318  0.76184  0.29688  Biso   1.000  O
  O21      1.0000 0.61774  0.73643  0.79794  Biso   1.000  O
  O22      1.0000 0.37960  0.26390  0.20026  Biso   1.000  O
  O23      1.0000 0.37915  0.74098  0.71909  Biso   1.000  O
  O24      1.0000 0.61873  0.25698  0.27852  Biso   1.000  O
  O25      1.0000 0.99408  0.25381  0.60568  Biso   1.000  O
  O26      1.0000 0.00997  0.74915  0.40679  Biso   1.000  O
  O27      1.0000 0.00734  0.25146  0.90395  Biso   1.000  O
  O28      1.0000 0.99709  0.74554  0.10874  Biso   1.000  O
  O29      1.0000 0.49232  0.75096  0.60901  Biso   1.000  O
  O30      1.0000 0.50584  0.24857  0.38821  Biso   1.000  O
  O31      1.0000 0.50660  0.75339  0.90705  Biso   1.000  O
  O32      1.0000 0.49136  0.24748  0.09039  Biso   1.000  O
  O33      1.0000 0.99576  0.95414  0.80225  Biso   1.000  O
  O34      1.0000 0.99566  0.04611  0.30197  Biso   1.000  O
  O35      1.0000 0.49502  0.54515  0.30353  Biso   1.000  O
  O36      1.0000 0.50536  0.45469  0.69678  Biso   1.000  O
  C1       1.0000 0.30816  0.98268  0.68053  Biso   1.000  C
  C2       1.0000 0.68646  0.01285  0.31056  Biso   1.000  C
  C3       1.0000 0.68565  0.98562  0.81294  Biso   1.000  C
  C4       1.0000 0.30881  0.01879  0.17813  Biso   1.000  C
  C5       1.0000 0.80751  0.48164  0.68202  Biso   1.000  C
  C6       1.0000 0.19241  0.51943  0.32139  Biso   1.000  C
  C7       1.0000 0.18503  0.48685  0.81420  Biso   1.000  C
  C8       1.0000 0.81461  0.51269  0.18893  Biso   1.000  C
  C9       1.0000 0.21603  0.03358  0.60666  Biso   1.000  C
  C10      1.0000 0.78203  0.97091  0.38823  Biso   1.000  C
  C11      1.0000 0.78126  0.02813  0.88872  Biso   1.000  C
  C12      1.0000 0.21680  0.96727  0.10609  Biso   1.000  C
  C13      1.0000 0.71425  0.53067  0.60939  Biso   1.000  C
  C14      1.0000 0.28535  0.46948  0.39190  Biso   1.000  C
  C15      1.0000 0.27983  0.53100  0.89134  Biso   1.000  C
  C16      1.0000 0.71982  0.46890  0.10990  Biso   1.000  C
  C17      1.0000 0.19502  0.10344  0.67287  Biso   1.000  C
  C18      1.0000 0.80773  0.89934  0.32924  Biso   1.000  C
  C19      1.0000 0.80652  0.09977  0.82919  Biso   1.000  C
  C20      1.0000 0.19625  0.89742  0.17282  Biso   1.000  C
  C21      1.0000 0.69199  0.59818  0.67704  Biso   1.000  C
  C22      1.0000 0.30734  0.40225  0.32351  Biso   1.000  C
  C23      1.0000 0.30407  0.60473  0.83357  Biso   1.000  C
  C24      1.0000 0.69538  0.39486  0.16700  Biso   1.000  C
  C25      1.0000 0.10930  0.14919  0.61465  Biso   1.000  C
  C26      1.0000 0.89546  0.85924  0.39123  Biso   1.000  C
  C27      1.0000 0.89418  0.14015  0.89047  Biso   1.000  C
  C28      1.0000 0.11064  0.85142  0.11531  Biso   1.000  C
  C29      1.0000 0.60566  0.64261  0.61966  Biso   1.000  C
  C30      1.0000 0.39363  0.35760  0.37999  Biso   1.000  C
  C31      1.0000 0.39118  0.64640  0.89581  Biso   1.000  C
  C32      1.0000 0.60824  0.35336  0.10407  Biso   1.000  C
  C33      1.0000 0.07369  0.21865  0.67515  Biso   1.000  C
  C34      1.0000 0.93157  0.78597  0.33552  Biso   1.000  C
  C35      1.0000 0.92924  0.21369  0.83356  Biso   1.000  C
  C36      1.0000 0.07623  0.78192  0.17727  Biso   1.000  C
  C37      1.0000 0.57094  0.71376  0.67912  Biso   1.000  C
  C38      1.0000 0.42731  0.28621  0.31913  Biso   1.000  C
  C39      1.0000 0.42696  0.71851  0.83793  Biso   1.000  C
  C40      1.0000 0.57145  0.28114  0.16033  Biso   1.000  C
  C41      1.0000 0.04761  0.12567  0.48957  Biso   1.000  C
  C42      1.0000 0.95579  0.89157  0.51384  Biso   1.000  C
  C43      1.0000 0.95498  0.10814  0.01316  Biso   1.000  C
  C44      1.0000 0.04843  0.87460  0.99023  Biso   1.000  C
  C45      1.0000 0.54456  0.61978  0.49400  Biso   1.000  C
  C46      1.0000 0.45523  0.38015  0.50570  Biso   1.000  C
  C47      1.0000 0.45254  0.61354  0.01776  Biso   1.000  C
  C48      1.0000 0.54728  0.38649  0.98220  Biso   1.000  C
  C49      1.0000 0.06781  0.05809  0.42192  Biso   1.000  C
  C50      1.0000 0.93312  0.96341  0.57341  Biso   1.000  C
  C51      1.0000 0.93274  0.03631  0.07326  Biso   1.000  C
  C52      1.0000 0.06817  0.94221  0.92211  Biso   1.000  C
  C53      1.0000 0.56630  0.55504  0.42492  Biso   1.000  C
  C54      1.0000 0.43385  0.44472  0.57545  Biso   1.000  C
  C55      1.0000 0.43157  0.53912  0.07564  Biso   1.000  C
  C56      1.0000 0.56854  0.46095  0.92476  Biso   1.000  C
  C57      1.0000 0.15159  0.00986  0.48068  Biso   1.000  C
  C58      1.0000 0.84563  0.00319  0.50968  Biso   1.000  C
  C59      1.0000 0.84535  0.99625  0.01012  Biso   1.000  C
  C60      1.0000 0.15186  0.99066  0.98026  Biso   1.000  C
  C61      1.0000 0.65061  0.50806  0.48252  Biso   1.000  C
  C62      1.0000 0.34945  0.49157  0.51868  Biso   1.000  C
  C63      1.0000 0.34469  0.49796  0.01168  Biso   1.000  C
  C64      1.0000 0.65536  0.50219  0.98944  Biso   1.000  C
  C65      1.0000 0.00771  0.00392  0.20072  Biso   1.000  C
  C66      1.0000 0.00784  0.99609  0.70089  Biso   1.000  C
  C67      1.0000 0.50737  0.50520  0.20170  Biso   1.000  C
  C68      1.0000 0.49293  0.49478  0.79857  Biso   1.000  C
  H1       1.0000 0.24644  0.11979  0.76958  Biso   1.000  H
  H2       1.0000 0.75673  0.87738  0.23403  Biso   1.000  H
  H3       1.0000 0.75548  0.12199  0.73417  Biso   1.000  H
  H4       1.0000 0.24767  0.88080  0.26939  Biso   1.000  H
  H5       1.0000 0.74338  0.61369  0.77397  Biso   1.000  H
  H6       1.0000 0.25609  0.38688  0.22647  Biso   1.000  H
  H7       1.0000 0.25310  0.62702  0.73848  Biso   1.000  H
  H8       1.0000 0.74648  0.37251  0.26203  Biso   1.000  H
  H9       1.0000 0.98118  0.15913  0.44150  Biso   1.000  H
  H10      1.0000 0.02358  0.86083  0.56395  Biso   1.000  H
  H11      1.0000 0.02279  0.13897  0.06293  Biso   1.000  H
  H12      1.0000 0.98198  0.84108  0.94253  Biso   1.000  H
  H13      1.0000 0.47809  0.65330  0.44569  Biso   1.000  H
  H14      1.0000 0.52172  0.34663  0.55367  Biso   1.000  H
  H15      1.0000 0.52023  0.64464  0.06742  Biso   1.000  H
  H16      1.0000 0.47962  0.35541  0.93220  Biso   1.000  H
  H17      1.0000 0.16803  0.95280  0.43359  Biso   1.000  H
  H18      1.0000 0.82545  0.06150  0.55083  Biso   1.000  H
  H19      1.0000 0.82548  0.93795  0.05161  Biso   1.000  H
  H20      1.0000 0.16801  0.04772  0.93287  Biso   1.000  H
  H21      1.0000 0.66815  0.45316  0.43373  Biso   1.000  H
  H22      1.0000 0.33208  0.54639  0.56778  Biso   1.000  H
  H23      1.0000 0.32585  0.43786  0.05159  Biso   1.000  H
  H24      1.0000 0.67437  0.56240  0.94992  Biso   1.000  H
  H25      1.0000 0.00954  0.92626  0.20944  Biso   1.000  H
  H26      1.0000 0.00955  0.07377  0.70923  Biso   1.000  H
  H27      1.0000 0.50966  0.42737  0.20811  Biso   1.000  H
  H28      1.0000 0.49058  0.57262  0.79218  Biso   1.000  H
  H29      1.0000 0.07349  0.02796  0.21068  Biso   1.000  H
  H30      1.0000 0.07371  0.97204  0.71118  Biso   1.000  H
  H31      1.0000 0.57292  0.53022  0.21149  Biso   1.000  H
  H32      1.0000 0.42737  0.46972  0.78870  Biso   1.000  H
