# generated using pymatgen
data_CuH2(C3O2)2
_symmetry_space_group_name_H-M   Fm-3m
_cell_length_a   26.43270000
_cell_length_b   26.43270000
_cell_length_c   26.43270000
_cell_angle_alpha   90.00000000
_cell_angle_beta   90.00000000
_cell_angle_gamma   90.00000000
_symmetry_Int_Tables_number   225
_chemical_formula_structural   CuH2(C3O2)2
_chemical_formula_sum   'Cu48 H96 C288 O192'
_cell_volume   18468.20049873
_cell_formula_units_Z   48
loop_
 _symmetry_equiv_pos_site_id
 _symmetry_equiv_pos_as_xyz
  1  'x, y, z'
  2  '-x+1/2, -y, -z+1/2'
  3  '-y+1/2, x+1/2, z'
  4  'y+1/2, -x, -z+1/2'
  5  '-x, -y, z'
  6  'x+1/2, y, -z+1/2'
  7  'y, -x, z'
  8  '-y+1/2, x, -z+1/2'
  9  'x+1/2, -y, -z+1/2'
  10  '-x, y, z'
  11  '-y+1/2, -x, -z+1/2'
  12  'y, x, z'
  13  '-x+1/2, y, -z+1/2'
  14  'x+1/2, -y+1/2, z'
  15  'y+1/2, x, -z+1/2'
  16  '-y, -x, z'
  17  'z+1/2, x, y+1/2'
  18  '-z+1/2, -x, -y+1/2'
  19  'z+1/2, -y, x+1/2'
  20  '-z+1/2, y, -x+1/2'
  21  'z+1/2, -x, -y+1/2'
  22  '-z, x+1/2, y+1/2'
  23  'z+1/2, y, -x+1/2'
  24  '-z+1/2, -y, x+1/2'
  25  '-z+1/2, x, -y+1/2'
  26  'z+1/2, -x, y+1/2'
  27  '-z, -y+1/2, -x+1/2'
  28  'z+1/2, y, x+1/2'
  29  '-z+1/2, -x, y+1/2'
  30  'z+1/2, x, -y+1/2'
  31  '-z+1/2, y, x+1/2'
  32  'z+1/2, -y, -x+1/2'
  33  'y, z+1/2, x+1/2'
  34  '-y+1/2, -z, -x+1/2'
  35  'x, z+1/2, -y+1/2'
  36  '-x, -z+1/2, y+1/2'
  37  '-y, z+1/2, -x+1/2'
  38  'y, -z+1/2, x+1/2'
  39  '-x, z+1/2, y+1/2'
  40  'x, -z+1/2, -y+1/2'
  41  '-y, -z+1/2, x+1/2'
  42  'y, z+1/2, -x+1/2'
  43  '-x, -z+1/2, -y+1/2'
  44  'x, z+1/2, y+1/2'
  45  'y, -z+1/2, -x+1/2'
  46  '-y, z+1/2, x+1/2'
  47  'x+1/2, -z, y+1/2'
  48  '-x, z+1/2, -y+1/2'
  49  'x+1/2, y+1/2, z'
  50  '-x, -y+1/2, -z+1/2'
  51  '-y, x, z'
  52  'y, -x+1/2, -z+1/2'
  53  '-x+1/2, -y+1/2, z'
  54  'x, y+1/2, -z+1/2'
  55  'y+1/2, -x+1/2, z'
  56  '-y, x+1/2, -z+1/2'
  57  'x, -y+1/2, -z+1/2'
  58  '-x+1/2, y+1/2, z'
  59  '-y, -x+1/2, -z+1/2'
  60  'y+1/2, x+1/2, z'
  61  '-x, y+1/2, -z+1/2'
  62  'x, -y, z'
  63  'y, x+1/2, -z+1/2'
  64  '-y+1/2, -x+1/2, z'
  65  'z, x+1/2, y+1/2'
  66  '-z, -x+1/2, -y+1/2'
  67  'z, -y+1/2, x+1/2'
  68  '-z, y+1/2, -x+1/2'
  69  'z, -x+1/2, -y+1/2'
  70  '-z+1/2, x, y+1/2'
  71  'z, y+1/2, -x+1/2'
  72  '-z, -y+1/2, x+1/2'
  73  '-z, x+1/2, -y+1/2'
  74  'z, -x+1/2, y+1/2'
  75  '-z+1/2, -y, -x+1/2'
  76  'z, y+1/2, x+1/2'
  77  '-z, -x+1/2, y+1/2'
  78  'z, x+1/2, -y+1/2'
  79  '-z, y+1/2, x+1/2'
  80  'z, -y+1/2, -x+1/2'
  81  'y+1/2, z, x+1/2'
  82  '-y, -z+1/2, -x+1/2'
  83  'x+1/2, z, -y+1/2'
  84  '-x+1/2, -z, y+1/2'
  85  '-y+1/2, z, -x+1/2'
  86  'y+1/2, -z, x+1/2'
  87  '-x+1/2, z, y+1/2'
  88  'x+1/2, -z, -y+1/2'
  89  '-y+1/2, -z, x+1/2'
  90  'y+1/2, z, -x+1/2'
  91  '-x+1/2, -z, -y+1/2'
  92  'x+1/2, z, y+1/2'
  93  'y+1/2, -z, -x+1/2'
  94  '-y+1/2, z, x+1/2'
  95  'x, -z+1/2, y+1/2'
  96  '-x+1/2, z, -y+1/2'
  97  'x+1/2, y, z+1/2'
  98  '-x, -y, -z'
  99  '-y, x+1/2, z+1/2'
  100  'y, -x, -z'
  101  '-x+1/2, -y, z+1/2'
  102  'x, y, -z'
  103  'y+1/2, -x, z+1/2'
  104  '-y, x, -z'
  105  'x, -y, -z'
  106  '-x+1/2, y, z+1/2'
  107  '-y, -x, -z'
  108  'y+1/2, x, z+1/2'
  109  '-x, y, -z'
  110  'x, -y+1/2, z+1/2'
  111  'y, x, -z'
  112  '-y+1/2, -x, z+1/2'
  113  'z, x, y'
  114  '-z, -x, -y'
  115  'z, -y, x'
  116  '-z, y, -x'
  117  'z, -x, -y'
  118  '-z+1/2, x+1/2, y'
  119  'z, y, -x'
  120  '-z, -y, x'
  121  '-z, x, -y'
  122  'z, -x, y'
  123  '-z+1/2, -y+1/2, -x'
  124  'z, y, x'
  125  '-z, -x, y'
  126  'z, x, -y'
  127  '-z, y, x'
  128  'z, -y, -x'
  129  'y+1/2, z+1/2, x'
  130  '-y, -z, -x'
  131  'x+1/2, z+1/2, -y'
  132  '-x+1/2, -z+1/2, y'
  133  '-y+1/2, z+1/2, -x'
  134  'y+1/2, -z+1/2, x'
  135  '-x+1/2, z+1/2, y'
  136  'x+1/2, -z+1/2, -y'
  137  '-y+1/2, -z+1/2, x'
  138  'y+1/2, z+1/2, -x'
  139  '-x+1/2, -z+1/2, -y'
  140  'x+1/2, z+1/2, y'
  141  'y+1/2, -z+1/2, -x'
  142  '-y+1/2, z+1/2, x'
  143  'x, -z, y'
  144  '-x+1/2, z+1/2, -y'
  145  'x, y+1/2, z+1/2'
  146  '-x+1/2, -y+1/2, -z'
  147  '-y+1/2, x, z+1/2'
  148  'y+1/2, -x+1/2, -z'
  149  '-x, -y+1/2, z+1/2'
  150  'x+1/2, y+1/2, -z'
  151  'y, -x+1/2, z+1/2'
  152  '-y+1/2, x+1/2, -z'
  153  'x+1/2, -y+1/2, -z'
  154  '-x, y+1/2, z+1/2'
  155  '-y+1/2, -x+1/2, -z'
  156  'y, x+1/2, z+1/2'
  157  '-x+1/2, y+1/2, -z'
  158  'x+1/2, -y, z+1/2'
  159  'y+1/2, x+1/2, -z'
  160  '-y, -x+1/2, z+1/2'
  161  'z+1/2, x+1/2, y'
  162  '-z+1/2, -x+1/2, -y'
  163  'z+1/2, -y+1/2, x'
  164  '-z+1/2, y+1/2, -x'
  165  'z+1/2, -x+1/2, -y'
  166  '-z, x, y'
  167  'z+1/2, y+1/2, -x'
  168  '-z+1/2, -y+1/2, x'
  169  '-z+1/2, x+1/2, -y'
  170  'z+1/2, -x+1/2, y'
  171  '-z, -y, -x'
  172  'z+1/2, y+1/2, x'
  173  '-z+1/2, -x+1/2, y'
  174  'z+1/2, x+1/2, -y'
  175  '-z+1/2, y+1/2, x'
  176  'z+1/2, -y+1/2, -x'
  177  'y, z, x'
  178  '-y+1/2, -z+1/2, -x'
  179  'x, z, -y'
  180  '-x, -z, y'
  181  '-y, z, -x'
  182  'y, -z, x'
  183  '-x, z, y'
  184  'x, -z, -y'
  185  '-y, -z, x'
  186  'y, z, -x'
  187  '-x, -z, -y'
  188  'x, z, y'
  189  'y, -z, -x'
  190  '-y, z, x'
  191  'x+1/2, -z+1/2, y'
  192  '-x, z, -y'
loop_
 _atom_site_type_symbol
 _atom_site_label
 _atom_site_symmetry_multiplicity
 _atom_site_fract_x
 _atom_site_fract_y
 _atom_site_fract_z
 _atom_site_occupancy
  Cu  Cu0  48  0.00000000  0.21638300  0.78360800  1
  H  H1  96  0.11729300  0.61732400  0.76694500  1
  C  C2  96  0.06911500  0.20309300  0.29688000  1
  C  C3  96  0.11295500  0.32213700  0.17786900  1
  C  C4  96  0.13425100  0.30075700  0.13426500  1
  O  O5  192  0.05241500  0.24353500  0.31694400  1
